@<TRIPOS>MOLECULE
FactorXa_2ra0_ligand
58   62    1
SMALL
USER_CHARGES


@<TRIPOS>ATOM
      1 C1         44.1810   51.1570   24.3630 C.3       1 MOL         0.0000 
      2 C2         43.6100   50.4790   23.2420 C.3       1 MOL         0.0000 
      3 C3         42.6940   50.7940   22.2290 C.3       1 MOL         0.0000 
      4 C4         44.1780   49.1810   23.2780 C.3       1 MOL         0.0000 
      5 C5         41.4130   45.4940   18.7720 C.3       1 MOL         0.0000 
      6 C6         41.0460   45.4890   20.1170 C.3       1 MOL         0.0000 
      7 C7         41.5500   46.4670   20.9670 C.3       1 MOL         0.0000 
      8 C8         42.4040   47.4590   20.4720 C.3       1 MOL         0.0000 
      9 C9         42.7760   47.4500   19.1260 C.3       1 MOL         0.0000 
     10 C10        42.2900   46.4620   18.2750 C.3       1 MOL         0.0000 
     11 C11        39.7800   44.9010   17.1350 C.3       1 MOL         0.0000 
     12 C12        41.1020   42.2920   16.8410 C.3       1 MOL         0.0000 
     13 C13        41.3680   43.1630   18.0750 C.3       1 MOL         0.0000 
     14 C14        43.9480   52.5700   24.8470 C.3       1 MOL         0.0000 
     15 C15        46.1030   46.2710   26.3750 C.3       1 MOL         0.0000 
     16 C16        45.3050   47.2770   25.8200 C.3       1 MOL         0.0000 
     17 C17        47.1460   47.9930   24.4210 C.3       1 MOL         0.0000 
     18 C18        45.5400   45.3200   27.4210 C.3       1 MOL         0.0000 
     19 N1         45.0080   50.3680   24.9990 N.3       1 MOL         0.0000 
     20 N2         45.0300   49.1820   24.3640 N.3       1 MOL         0.0000 
     21 C19        42.3470   49.8020   21.3120 C.3       1 MOL         0.0000 
     22 C20        42.8870   48.5140   21.3840 C.3       1 MOL         0.0000 
     23 C21        43.8420   48.1910   22.3520 C.3       1 MOL         0.0000 
     24 N3         40.8620   44.5450   17.9020 N.3       1 MOL         0.0000 
     25 O1         39.2530   46.0160   17.1770 O.3       1 MOL         0.0000 
     26 C22        45.8250   48.1370   24.8520 C.3       1 MOL         0.0000 
     27 C23        47.9420   46.9830   24.9610 C.3       1 MOL         0.0000 
     28 C24        47.4260   46.1290   25.9400 C.3       1 MOL         0.0000 
     29 N4         44.5870   45.9930   28.4180 N.4       1 MOL         0.0000 
     30 C25        39.2600   43.8530   16.1310 C.3       1 MOL         0.0000 
     31 C26        39.6390   42.3960   16.4340 C.3       1 MOL         0.0000 
     32 H1         42.2440   51.7740   22.1720 H         1 MOL         0.0000 
     33 H2         40.3600   44.7460   20.4980 H         1 MOL         0.0000 
     34 H3         43.4340   48.2120   18.7360 H         1 MOL         0.0000 
     35 H4         42.5640   46.4680   17.2300 H         1 MOL         0.0000 
     36 H5         40.8830   42.7270   18.9520 H         1 MOL         0.0000 
     37 H6         44.2770   47.4030   26.1310 H         1 MOL         0.0000 
     38 H7         47.5590   48.6650   23.6810 H         1 MOL         0.0000 
     39 H8         41.6120   50.0240   20.5520 H         1 MOL         0.0000 
     40 H9         48.9660   46.8720   24.6310 H         1 MOL         0.0000 
     41 H10        44.2230   45.3390   29.1140 H         1 MOL         0.0000 
     42 H11        44.2660   53.3030   24.1070 H         1 MOL         0.0000 
     43 H12        44.4890   52.7920   25.7700 H         1 MOL         0.0000 
     44 H13        42.8940   52.7500   25.0520 H         1 MOL         0.0000 
     45 H14        44.9820   44.5140   26.9480 H         1 MOL         0.0000 
     46 H15        46.3180   44.8860   28.0540 H         1 MOL         0.0000 
     47 H16        48.0590   45.3560   26.3530 H         1 MOL         0.0000 
     48 H17        45.1220   46.6830   28.9350 H         1 MOL         0.0000 
     49 H18        44.2620   47.1970   22.4100 H         1 MOL         0.0000 
     50 H19        41.2610   46.4710   22.0120 H         1 MOL         0.0000 
     51 H20        42.4410   43.1830   18.2790 H         1 MOL         0.0000 
     52 H21        39.6750   44.1660   15.1790 H         1 MOL         0.0000 
     53 H22        38.1800   43.9580   16.0400 H         1 MOL         0.0000 
     54 H23        41.7470   42.6130   16.0200 H         1 MOL         0.0000 
     55 H24        41.3670   41.2570   17.0610 H         1 MOL         0.0000 
     56 H25        39.0020   42.0060   17.2210 H         1 MOL         0.0000 
     57 H26        39.4210   41.7600   15.5800 H         1 MOL         0.0000 
     58 H27        43.8090   46.4470   27.9540 H         1 MOL         0.0000 
@<TRIPOS>BOND
     1    1    2 1    
     2    1   14 1    
     3    1   19 1    
     4    2    3 1    
     5    2    4 1    
     6    3   21 1    
     7    3   32 1    
     8    4   20 1    
     9    4   23 1    
    10    5    6 1    
    11    5   10 1    
    12    5   24 1    
    13    6    7 1    
    14    6   33 1    
    15    7    8 1    
    16    7   50 1    
    17    8    9 1    
    18    8   22 1    
    19    9   10 1    
    20    9   34 1    
    21   10   35 1    
    22   11   24 1    
    23   11   25 1    
    24   11   30 1    
    25   12   13 1    
    26   12   31 1    
    27   12   54 1    
    28   12   55 1    
    29   13   24 1    
    30   13   36 1    
    31   13   51 1    
    32   14   42 1    
    33   14   43 1    
    34   14   44 1    
    35   15   16 1    
    36   15   18 1    
    37   15   28 1    
    38   16   26 1    
    39   16   37 1    
    40   17   26 1    
    41   17   27 1    
    42   17   38 1    
    43   18   29 1    
    44   18   45 1    
    45   18   46 1    
    46   19   20 1    
    47   20   26 1    
    48   21   22 1    
    49   21   39 1    
    50   22   23 1    
    51   23   49 1    
    52   27   28 1    
    53   27   40 1    
    54   28   47 1    
    55   29   41 1    
    56   29   48 1    
    57   29   58 1    
    58   30   31 1    
    59   30   52 1    
    60   30   53 1    
    61   31   56 1    
    62   31   57 1    
@<TRIPOS>SUBSTRUCTURE
     1 MOL         1 GROUP             0 C     ****    0 ROOT    
