@<TRIPOS>MOLECULE
CB7
126   147    1
SMALL
USER_CHARGES


@<TRIPOS>ATOM
      1 N01       -13.2330   -1.5550    0.2390 N.3       1 CB7        -0.1860 
      2 C01       -13.8550   -1.8680   -1.0500 C.3       1 CB7         0.0640 
      3 C02       -13.3560   -3.2520   -1.4310 C.3       1 CB7         0.0640 
      4 N02       -13.4830   -0.9920   -2.1170 N.3       1 CB7        -0.1860 
      5 N03       -12.4530   -3.5060   -0.3700 N.3       1 CB7        -0.1860 
      6 N04       -12.6830   -3.0140   -2.6790 N.3       1 CB7        -0.1860 
      7 C03       -11.9210   -4.8280   -0.2080 C.3       1 CB7         0.0040 
      8 C04       -13.6560   -0.3950    0.9340 C.3       1 CB7         0.0040 
      9 C05       -12.4740   -2.5870    0.6830 C.3       1 CB7         0.3326 
     10 C06       -12.2850   -4.0850   -3.6060 C.3       1 CB7         0.0040 
     11 C07       -14.2260    0.1620   -2.3300 C.3       1 CB7         0.0040 
     12 C08       -12.8720   -1.7000   -3.1150 C.3       1 CB7         0.3326 
     13 O01       -11.9110   -2.6860    1.8010 O.3       1 CB7        -0.2086 
     14 O02       -12.6020   -1.3190   -4.2440 O.3       1 CB7        -0.2086 
     15 N05       -10.7440   -4.8700   -1.0900 N.3       1 CB7        -0.1860 
     16 N06       -10.9010   -4.4050   -3.3720 N.3       1 CB7        -0.1860 
     17 C09       -10.6670   -5.3960   -2.3760 C.3       1 CB7         0.0640 
     18 C10        -9.4860   -4.8880   -0.5330 C.3       1 CB7         0.3326 
     19 C11        -9.9040   -4.4500   -4.2780 C.3       1 CB7         0.3326 
     20 O03        -9.9500   -3.9610   -5.4170 O.3       1 CB7        -0.2086 
     21 N07        -8.8230   -5.1220   -3.7030 N.3       1 CB7        -0.1860 
     22 O04        -9.1660   -4.4720    0.5750 O.3       1 CB7        -0.2086 
     23 N08        -8.6380   -5.4700   -1.4040 N.3       1 CB7        -0.1860 
     24 C12        -9.2870   -5.8970   -2.5720 C.3       1 CB7         0.0640 
     25 C13        -7.6330   -5.6210   -4.4050 C.3       1 CB7         0.0040 
     26 C14        -7.3980   -6.1340   -0.9490 C.3       1 CB7         0.0040 
     27 N09        -6.2820   -5.3150   -1.4650 N.3       1 CB7        -0.1860 
     28 N10        -6.5750   -4.9430   -3.7550 N.3       1 CB7        -0.1860 
     29 N11       -12.9800    0.7620    0.4810 N.3       1 CB7        -0.1860 
     30 N12       -13.3380    1.0970   -1.7540 N.3       1 CB7        -0.1860 
     31 C15        -5.6850   -5.4560   -2.7570 C.3       1 CB7         0.0640 
     32 C16        -6.0380   -3.8050   -4.3230 C.3       1 CB7         0.3326 
     33 C17        -5.4040   -4.5140   -0.7530 C.3       1 CB7         0.3326 
     34 O05        -6.5130   -3.1930   -5.3050 O.3       1 CB7        -0.2086 
     35 N13        -4.7880   -3.5870   -3.7300 N.3       1 CB7        -0.1860 
     36 O06        -5.5770   -4.3890    0.4500 O.3       1 CB7        -0.2086 
     37 N14        -4.4470   -3.9110   -1.5600 N.3       1 CB7        -0.1860 
     38 C18        -4.4630   -4.5690   -2.7670 C.3       1 CB7         0.0640 
     39 C19       -13.5470    1.6610   -0.5170 C.3       1 CB7         0.0640 
     40 C20       -12.0810    1.5230    1.2170 C.3       1 CB7         0.3326 
     41 C21       -12.6210    2.0970   -2.5210 C.3       1 CB7         0.3326 
     42 O07       -12.5080    2.0650   -3.7690 O.3       1 CB7        -0.2086 
     43 N15       -12.1820    3.0970   -1.7310 N.3       1 CB7        -0.1860 
     44 O08       -11.5490    1.2390    2.2410 O.3       1 CB7        -0.2086 
     45 N16       -11.9220    2.7710    0.5720 N.3       1 CB7        -0.1860 
     46 C22       -12.8290    2.9620   -0.4440 C.3       1 CB7         0.0640 
     47 N17       -10.4270    4.5480   -1.8080 N.3       1 CB7        -0.1860 
     48 N18       -10.1250    4.1550    0.5920 N.3       1 CB7        -0.1860 
     49 C23        -9.3100    4.4340   -2.6110 C.3       1 CB7         0.3326 
     50 C24       -10.0330    5.0470   -0.5290 C.3       1 CB7         0.0640 
     51 C25        -8.8810    3.9670    1.1440 C.3       1 CB7         0.3326 
     52 O09        -8.6250    3.2680    2.1260 O.3       1 CB7        -0.2086 
     53 N19        -7.9110    4.6870    0.4710 N.3       1 CB7        -0.1860 
     54 O10        -9.4430    4.1300   -3.8160 O.3       1 CB7        -0.2086 
     55 N20        -8.1490    4.7990   -1.9180 N.3       1 CB7        -0.1860 
     56 C26        -6.4910    4.6410    0.7870 C.3       1 CB7         0.0040 
     57 C27        -8.5290    5.3410   -0.6610 C.3       1 CB7         0.0640 
     58 C28        -6.9560    5.2450   -2.6470 C.3       1 CB7         0.0040 
     59 N21        -5.7460    3.9210   -0.1580 N.3       1 CB7        -0.1860 
     60 N22        -5.9480    4.2690   -2.5080 N.3       1 CB7        -0.1860 
     61 C29        -5.0400    2.8000    0.2980 C.3       1 CB7         0.3326 
     62 C30        -5.1140    4.3430   -1.3960 C.3       1 CB7         0.0640 
     63 C31        -5.4550    3.4590   -3.5070 C.3       1 CB7         0.3326 
     64 O11        -5.8330    3.4950   -4.6980 O.3       1 CB7        -0.2086 
     65 N23        -4.4060    2.6700   -2.9450 N.3       1 CB7        -0.1860 
     66 O12        -5.2050    2.2430    1.3900 O.3       1 CB7        -0.2086 
     67 N24        -4.1020    2.4310   -0.6370 N.3       1 CB7        -0.1860 
     68 C32        -3.4900    2.0180   -3.8950 C.3       1 CB7         0.0040 
     69 C33        -2.9920    1.4410   -0.4290 C.3       1 CB7         0.0040 
     70 C34        -4.0030    3.2970   -1.7640 C.3       1 CB7         0.0640 
     71 N25        -3.2000    0.2520   -1.1840 N.3       1 CB7        -0.1860 
     72 N26        -3.5990    0.6400   -3.5370 N.3       1 CB7        -0.1860 
     73 C35        -3.7460   -0.8820   -0.5920 C.3       1 CB7         0.3326 
     74 C36        -2.7310    0.0610   -2.5040 C.3       1 CB7         0.0640 
     75 C37        -4.1430   -0.3990   -4.3250 C.3       1 CB7         0.3326 
     76 O13        -4.9260   -0.3760   -5.2740 O.3       1 CB7        -0.2086 
     77 N27        -3.6340   -1.6070   -3.8510 N.3       1 CB7        -0.1860 
     78 O          -4.2220   -0.9170    0.5190 O.3       1 CB7        -0.2086 
     79 N          -3.5340   -1.8940   -1.4880 N.3       1 CB7        -0.1860 
     80 C38        -2.8640   -1.4290   -2.6430 C.3       1 CB7         0.0640 
     81 C39       -11.7770    4.3360   -2.3220 C.3       1 CB7         0.0040 
     82 C40       -11.3470    3.9070    1.2720 C.3       1 CB7         0.0040 
     83 C41        -3.3700   -3.2650   -1.0320 C.3       1 CB7         0.0040 
     84 C          -3.7560   -2.9310   -4.4720 C.3       1 CB7         0.0040 
     85 H1        -14.9640   -1.9150   -1.0100 H         1 CB7         0.0600 
     86 H2        -14.2460   -3.9050   -1.5600 H         1 CB7         0.0600 
     87 H3        -12.6840   -5.5520   -0.5660 H         1 CB7         0.0600 
     88 H4        -11.6110   -5.0390    0.8370 H         1 CB7         0.0600 
     89 H5        -13.5020   -0.5140    2.0280 H         1 CB7         0.0600 
     90 H6        -14.7350   -0.2150    0.7430 H         1 CB7         0.0600 
     91 H7        -12.4440   -3.8640   -4.6830 H         1 CB7         0.0600 
     92 H8        -12.8410   -5.0390   -3.4850 H         1 CB7         0.0600 
     93 H9        -15.1900    0.1290   -1.7780 H         1 CB7         0.0600 
     94 H10       -14.3510    0.4750   -3.3890 H         1 CB7         0.0600 
     95 H11       -11.4610   -6.1710   -2.4410 H         1 CB7         0.0600 
     96 H12        -9.1550   -6.9840   -2.7620 H         1 CB7         0.0600 
     97 H13        -7.7650   -5.3760   -5.4810 H         1 CB7         0.0600 
     98 H14        -7.4800   -6.7140   -4.2740 H         1 CB7         0.0600 
     99 H15        -7.3090   -7.1780   -1.3190 H         1 CB7         0.0600 
    100 H16        -7.3360   -6.1500    0.1610 H         1 CB7         0.0600 
    101 H17        -5.3810   -6.5110   -2.9230 H         1 CB7         0.0600 
    102 H18        -3.5360   -5.1540   -2.9480 H         1 CB7         0.0600 
    103 H19       -14.6070    1.8380   -0.2340 H         1 CB7         0.0600 
    104 H20       -13.5320    3.7730   -0.1560 H         1 CB7         0.0600 
    105 H21       -10.6310    5.9670   -0.3530 H         1 CB7         0.0600 
    106 H22        -6.3700    4.2750    1.8290 H         1 CB7         0.0600 
    107 H23        -6.1460    5.6970    0.7680 H         1 CB7         0.0600 
    108 H24        -8.3350    6.4290   -0.5440 H         1 CB7         0.0600 
    109 H25        -6.5810    6.2090   -2.2410 H         1 CB7         0.0600 
    110 H26        -7.1300    5.3610   -3.7380 H         1 CB7         0.0600 
    111 H27        -4.6530    5.3420   -1.2420 H         1 CB7         0.0600 
    112 H28        -2.4860    2.4510   -3.7000 H         1 CB7         0.0600 
    113 H29        -3.8700    2.1910   -4.9250 H         1 CB7         0.0600 
    114 H30        -3.0340    1.2550    0.6660 H         1 CB7         0.0600 
    115 H31        -2.0790    1.8710   -0.8930 H         1 CB7         0.0600 
    116 H32        -2.9990    3.7710   -1.7980 H         1 CB7         0.0600 
    117 H33        -1.6660    0.3760   -2.5230 H         1 CB7         0.0600 
    118 H34        -1.8480   -1.8630   -2.7520 H         1 CB7         0.0600 
    119 H35       -12.3010    5.2410   -1.9460 H         1 CB7         0.0600 
    120 H36       -11.8280    4.4340   -3.4280 H         1 CB7         0.0600 
    121 H37       -11.0760    3.6410    2.3160 H         1 CB7         0.0600 
    122 H38       -11.9280    4.8480    1.1670 H         1 CB7         0.0600 
    123 H39        -2.4440   -3.7430   -1.4180 H         1 CB7         0.0600 
    124 H40        -3.4040   -3.2570    0.0780 H         1 CB7         0.0600 
    125 H41        -4.0700   -2.8890   -5.5370 H         1 CB7         0.0600 
    126 H42        -2.8310   -3.5370   -4.3630 H         1 CB7         0.0600 
@<TRIPOS>BOND
     1    1    2 1    
     2    1    8 1    
     3    1    9 1    
     4    2    3 1    
     5    2    4 1    
     6    2   85 1    
     7    3    5 1    
     8    3    6 1    
     9    3   86 1    
    10    4   11 1    
    11    4   12 1    
    12    5    7 1    
    13    5    9 1    
    14    6   10 1    
    15    6   12 1    
    16    7   15 1    
    17    7   87 1    
    18    7   88 1    
    19    8   29 1    
    20    8   89 1    
    21    8   90 1    
    22    9   13 1    
    23   10   16 1    
    24   10   91 1    
    25   10   92 1    
    26   11   30 1    
    27   11   93 1    
    28   11   94 1    
    29   12   14 1    
    30   15   17 1    
    31   15   18 1    
    32   16   17 1    
    33   16   19 1    
    34   17   24 1    
    35   17   95 1    
    36   18   22 1    
    37   18   23 1    
    38   19   20 1    
    39   19   21 1    
    40   21   24 1    
    41   21   25 1    
    42   23   24 1    
    43   23   26 1    
    44   24   96 1    
    45   25   28 1    
    46   25   97 1    
    47   25   98 1    
    48   26   27 1    
    49   26   99 1    
    50   26  100 1    
    51   27   31 1    
    52   27   33 1    
    53   28   31 1    
    54   28   32 1    
    55   29   39 1    
    56   29   40 1    
    57   30   39 1    
    58   30   41 1    
    59   31   38 1    
    60   31  101 1    
    61   32   34 1    
    62   32   35 1    
    63   33   36 1    
    64   33   37 1    
    65   35   38 1    
    66   35   84 1    
    67   37   38 1    
    68   37   83 1    
    69   38  102 1    
    70   39   46 1    
    71   39  103 1    
    72   40   44 1    
    73   40   45 1    
    74   41   42 1    
    75   41   43 1    
    76   43   46 1    
    77   43   81 1    
    78   45   46 1    
    79   45   82 1    
    80   46  104 1    
    81   47   49 1    
    82   47   50 1    
    83   47   81 1    
    84   48   50 1    
    85   48   51 1    
    86   48   82 1    
    87   49   54 1    
    88   49   55 1    
    89   50   57 1    
    90   50  105 1    
    91   51   52 1    
    92   51   53 1    
    93   53   56 1    
    94   53   57 1    
    95   55   57 1    
    96   55   58 1    
    97   56   59 1    
    98   56  106 1    
    99   56  107 1    
   100   57  108 1    
   101   58   60 1    
   102   58  109 1    
   103   58  110 1    
   104   59   61 1    
   105   59   62 1    
   106   60   62 1    
   107   60   63 1    
   108   61   66 1    
   109   61   67 1    
   110   62   70 1    
   111   62  111 1    
   112   63   64 1    
   113   63   65 1    
   114   65   68 1    
   115   65   70 1    
   116   67   69 1    
   117   67   70 1    
   118   68   72 1    
   119   68  112 1    
   120   68  113 1    
   121   69   71 1    
   122   69  114 1    
   123   69  115 1    
   124   70  116 1    
   125   71   73 1    
   126   71   74 1    
   127   72   74 1    
   128   72   75 1    
   129   73   78 1    
   130   73   79 1    
   131   74   80 1    
   132   74  117 1    
   133   75   76 1    
   134   75   77 1    
   135   77   80 1    
   136   77   84 1    
   137   79   80 1    
   138   79   83 1    
   139   80  118 1    
   140   81  119 1    
   141   81  120 1    
   142   82  121 1    
   143   82  122 1    
   144   83  123 1    
   145   83  124 1    
   146   84  125 1    
   147   84  126 1    
@<TRIPOS>SUBSTRUCTURE
     1 CB7         1 GROUP             0 Z     ****    0 ROOT    
